
#======================================================================
# CRYSTAL DATA
#----------------------------------------------------------------------
data_VESTA_phase_1

_chemical_name_common                  '5yOhtAoR'
_cell_length_a                         8.334300
_cell_length_b                         11.753000
_cell_length_c                         8.911100
_cell_angle_alpha                      90.000000
_cell_angle_beta                       90.000000
_cell_angle_gamma                      90.000000
_cell_volume                           872.869288
_space_group_name_H-M_alt              'Pn'na''
_space_group_IT_number                 52

loop_
_space_group_symop_operation_xyz
   'x, y, z'
   'x, -y+1/2t, -z+1/2t'
   '-x+1/2t, y+1/2t, -z+1/2t'
   '-x+1/2t, -y, z'
   '-x, -y, -z'
   '-x, y+1/2t, z+1/2t'
   'x+1/2t, -y+1/2t, z+1/2t'
   'x+1/2t, y, -z'

loop_
   _atom_site_label
   _atom_site_occupancy
   _atom_site_fract_x
   _atom_site_fract_y
   _atom_site_fract_z
   _atom_site_adp_type
   _atom_site_U_iso_or_equiv
   _atom_site_type_symbol
   Co1        1.0     0.253710     0.250000     0.250000    Uiso  ? Co
   O1         1.0     0.256710     0.405660     0.365550    Uiso  ? O
   O2         1.0     0.406880     0.182730     0.413320    Uiso  ? O
   O3         1.0     0.564600     0.192270     0.611900    Uiso  ? O
   C1         1.0     0.250000     0.000000     0.197000    Uiso  ? C
   H1         1.0     0.250000     0.000000     0.301400    Uiso  ? H
   C2         1.0     0.523400     0.222250     0.483500    Uiso  ? C
   H2         1.0     0.584100     0.278300     0.436600    Uiso  ? H
   C3         1.0     0.250000     0.000000     0.743200    Uiso  ? C
   N1         1.0     0.340400     0.426960     0.683550    Uiso  ? N
   H3         1.0     0.340700     0.426700     0.587000    Uiso  ? H
   H4         1.0     0.399200     0.379500     0.732200    Uiso  ? H
   N2         1.0     0.250000     0.000000     0.594800    Uiso  ? N
   H5         0.5000  0.308900     0.452400     0.953400    Uiso  ? H
   H6         0.5000  0.191100     0.547600     0.953400    Uiso  ? H
