
#======================================================================
# CRYSTAL DATA
#----------------------------------------------------------------------
data_VESTA_phase_1

_chemical_name_common                  'Pb2 Mn0 .6Co0 .4W O6'
_cell_length_a                         15.983600
_cell_length_b                         5.742180
_cell_length_c                         11.527200
_cell_angle_alpha                      90.000000
_cell_angle_beta                       90.000000
_cell_angle_gamma                      90.000000
_cell_volume                           1057.974511
_space_group_name_H-M_alt              'Pm'c2_1''
_space_group_IT_number                 26

loop_
_space_group_symop_operation_xyz
   'x, y, z'
   '-x, -y, z+1/2t'
   '-x, y, z'
   'x, -y, z+1/2t'

loop_
   _atom_site_label
   _atom_site_occupancy
   _atom_site_fract_x
   _atom_site_fract_y
   _atom_site_fract_z
   _atom_site_adp_type
   _atom_site_U_iso_or_equiv
   _atom_site_type_symbol
   Pb1        1.0     0.630690     0.032410     0.140340    Uiso  ? Pb
   Pb2        1.0     0.130690     0.032410     0.140340    Uiso  ? Pb
   Pb3        1.0     0.880690     0.467590     0.859660    Uiso  ? Pb
   Pb4        1.0     0.380690     0.467590     0.859660    Uiso  ? Pb
   W1         1.0     0.750000     0.499630     0.121190    Uiso  ? W
   W2         1.0     0.000000     0.000370     0.878810    Uiso  ? W
   W3         1.0     0.500000     0.000370     0.878810    Uiso  ? W
   Mn1        0.5813  0.750000    -0.006000     0.866500    Uiso  ? Mn
   Mn2        0.5813  0.000000     0.506000     0.133500    Uiso  ? Mn
   Mn3        0.5813  0.500000     0.506000     0.133500    Uiso  ? Mn
   O1         1.0     0.629350     0.475350     0.132020    Uiso  ? O
   O2         1.0     0.129350     0.475350     0.132020    Uiso  ? O
   O3         1.0     0.879350     0.024650     0.867980    Uiso  ? O
   O4         1.0     0.379350     0.024650     0.867980    Uiso  ? O
   O5         1.0     0.750000     0.729430     0.011010    Uiso  ? O
   O6         1.0     0.000000     0.770570    -0.011010    Uiso  ? O
   O7         1.0     0.500000     0.770570    -0.011010    Uiso  ? O
   O8         1.0     0.750000     0.265820    -0.003810    Uiso  ? O
   O9         1.0     0.000000     0.234180     0.003810    Uiso  ? O
   O10        1.0     0.500000     0.234180     0.003810    Uiso  ? O
   O11        1.0     0.750000     0.702360     0.252460    Uiso  ? O
   O12        1.0     0.000000     0.797640     0.747540    Uiso  ? O
   O13        1.0     0.500000     0.797640     0.747540    Uiso  ? O
   O14        1.0     0.750000     0.228470     0.239580    Uiso  ? O
   O15        1.0     0.000000     0.271540     0.760420    Uiso  ? O
   O16        1.0     0.500000     0.271540     0.760420    Uiso  ? O
   Co1        0.4187  0.750000    -0.006000     0.866500    Uiso  ? Co
   Co2        0.4187  0.000000     0.506000     0.133500    Uiso  ? Co
   Co3        0.4187  0.500000     0.506000     0.133500    Uiso  ? Co
